Version 4
SHEET 1 2052 680
WIRE 768 -32 736 -32
WIRE 960 -32 848 -32
WIRE 1120 -32 960 -32
WIRE 1264 -32 1200 -32
WIRE 1024 16 1024 -80
WIRE 992 32 928 32
WIRE 1264 48 1056 48
WIRE 1296 48 1264 48
WIRE 960 64 960 -32
WIRE 992 64 960 64
WIRE 1024 112 1024 80
WIRE 768 160 736 160
WIRE 928 160 928 32
WIRE 928 160 848 160
WIRE 1120 160 928 160
WIRE 1264 160 1264 48
WIRE 1264 160 1200 160
FLAG 1024 -80 VDD
IOPIN 1024 -80 In
FLAG 1024 112 0
FLAG 1264 -32 0
FLAG 1296 48 Vout
IOPIN 1296 48 Out
FLAG 736 -32 Vin+
IOPIN 736 -32 In
FLAG 736 160 Vin-
IOPIN 736 160 In
SYMBOL OpAmps\\UniversalOpAmp2 1024 48 R0
SYMATTR InstName U3
SYMATTR Value2 Avol=3.1623e4 GBW=18Meg Slew=10Meg
SYMATTR SpiceLine Ilimit=18m Rail=0 Vos=0
SYMBOL res 864 -48 R90
WINDOW 0 0 56 VBottom 2
WINDOW 3 32 56 VTop 2
SYMATTR InstName R4
SYMATTR Value 1k
SYMBOL res 1216 -48 R90
WINDOW 0 0 56 VBottom 2
WINDOW 3 32 56 VTop 2
SYMATTR InstName R5
SYMATTR Value 6k
SYMBOL res 864 144 R90
WINDOW 0 0 56 VBottom 2
WINDOW 3 32 56 VTop 2
SYMATTR InstName R2
SYMATTR Value 1k
SYMBOL res 1216 144 R90
WINDOW 0 0 56 VBottom 2
WINDOW 3 32 56 VTop 2
SYMATTR InstName 5k
SYMATTR Value 6k
